<?xml version="1.0" encoding="UTF-8"?>
<febio_spec version="3.0">
    <!--Created using GIBBON, 15-Feb-2022 14:29:41-->
    <Module type="solid"/>
    <Control>
        <analysis>STATIC</analysis>
        <time_steps>20</time_steps>
        <step_size>5.0000000e-02</step_size>
        <solver>
            <max_refs>10</max_refs>
            <max_ups>0</max_ups>
            <diverge_reform>1</diverge_reform>
            <reform_each_time_step>1</reform_each_time_step>
            <dtol>1.0000000e-03</dtol>
            <etol>1.0000000e-02</etol>
            <rtol>0</rtol>
            <lstol>9.0000000e-01</lstol>
            <lsmin>1.0000000e-02</lsmin>
            <lsiter>5</lsiter>
            <min_residual>1.0000000e-20</min_residual>
            <optimize_bw>0</optimize_bw>
            <qnmethod>0</qnmethod>
            <cmax>100000</cmax>
        </solver>
        <time_stepper>
            <dtmin>1.2500000e-02</dtmin>
            <dtmax>5.0000000e-02</dtmax>
            <max_retries>8</max_retries>
            <opt_iter>12</opt_iter>
        </time_stepper>
        <plot_level>PLOT_MAJOR_ITRS</plot_level>
        <plot_range>0, -1</plot_range>
        <plot_stride>1</plot_stride>
        <plot_zero_state>0</plot_zero_state>
        <output_level>OUTPUT_MAJOR_ITRS</output_level>
    </Control>
    <Globals>
        <Constants>
            <T>8.3140000e-06</T>
            <R>298</R>
            <Fc>9.6485000e-05</Fc>
        </Constants>
    </Globals>
    <Material>
        <material id="1" name="Material1" type="Ogden">
            <c1>1.0067114e+00</c1>
            <m1>2</m1>
            <c2>1.0067114e+00</c2>
            <m2>-2</m2>
            <k>1.0067114e+02</k>
        </material>
        <material id="2" name="Material2" type="Ogden">
            <c1>1.0067114e+00</c1>
            <m1>2</m1>
            <c2>1.0067114e+00</c2>
            <m2>-2</m2>
            <k>1.0067114e+02</k>
        </material>
    </Material>
    <Mesh>
        <Nodes name="nodeSet_all">
                <node id="1">5.7487000e+00, 8.9817100e+00, 7.4492400e+01</node>
                <node id="2">2.6409800e+00, 9.7997400e+00, 7.6173100e+01</node>
                <node id="3">5.0050800e+00, 6.2302400e+00, 7.6775700e+01</node>
                <node id="4">7.5701000e+00, 5.8206200e+00, 7.4229600e+01</node>
                <node id="5">5.5762000e+00, 7.8097000e+00, 7.1479500e+01</node>
                <node id="6">3.1924200e+00, 1.0859400e+01, 7.2851800e+01</node>
                <node id="7">-1.4392500e-01, 1.2199200e+01, 7.4512500e+01</node>
                <node id="8">-1.0659600e+00, 1.0241200e+01, 7.7290300e+01</node>
                <node id="9">1.4764100e+00, 6.9625800e+00, 7.8169700e+01</node>
                <node id="10">2.9892600e+00, 3.2258200e+00, 7.7902600e+01</node>
                <node id="11">6.2146000e+00, 2.2823200e+00, 7.6536800e+01</node>
                <node id="12">8.2657000e+00, 2.3286100e+00, 7.3949700e+01</node>
                <node id="13">6.7859800e+00, 4.1269200e+00, 7.1218600e+01</node>
                <node id="14">3.4429600e+00, 5.2490900e+00, 6.9557000e+01</node>
                <node id="15">1.9504400e+00, 8.6703200e+00, 7.0053600e+01</node>
                <node id="16">-1.7970000e-01, 1.1283700e+01, 7.1219600e+01</node>
                <node id="17">-3.2250800e+00, 1.2740900e+01, 7.2092600e+01</node>
                <node id="18">-4.0206500e+00, 1.2738500e+01, 7.5427500e+01</node>
                <node id="19">-2.0086400e+00, 7.3761900e+00, 7.9422300e+01</node>
                <node id="20">-4.7556500e+00, 1.0253100e+01, 7.8130100e+01</node>
<!-- ... 430 like lines cut -->
        </Nodes>
        <Elements name="SoftPart" type="tri3">
                <elem id="1">3, 4, 1</elem>
                <elem id="2">4, 5, 1</elem>
                <elem id="3">5, 6, 1</elem>
                <elem id="4">1, 6, 2</elem>
                <elem id="5">6, 7, 2</elem>
                <elem id="6">7, 8, 2</elem>
                <elem id="7">8, 9, 2</elem>
                <elem id="8">2, 9, 3</elem>
                <elem id="9">9, 10, 3</elem>
                <elem id="10">10, 11, 3</elem>
                <elem id="11">3, 11, 4</elem>
                <elem id="12">11, 12, 4</elem>
                <elem id="13">12, 13, 4</elem>
                <elem id="14">4, 13, 5</elem>
                <elem id="15">13, 14, 5</elem>
                <elem id="16">14, 15, 5</elem>
                <elem id="17">5, 15, 6</elem>
                <elem id="18">15, 16, 6</elem>
                <elem id="19">6, 16, 7</elem>
                <elem id="20">16, 17, 7</elem>
<!-- ... 875 like lines cut -->
        </Elements>
        <Elements name="StiffPart" type="tri3">
                <elem id="896">2, 3, 1</elem>
        </Elements>
        <Surface name="LoadedSurface">
                <tri3 id="1">2, 3, 1</tri3>
                <tri3 id="2">3, 4, 1</tri3>
                <tri3 id="3">4, 5, 1</tri3>
                <tri3 id="4">5, 6, 1</tri3>
                <tri3 id="5">1, 6, 2</tri3>
                <tri3 id="6">6, 7, 2</tri3>
                <tri3 id="7">7, 8, 2</tri3>
                <tri3 id="8">8, 9, 2</tri3>
                <tri3 id="9">2, 9, 3</tri3>
                <tri3 id="10">9, 10, 3</tri3>
                <tri3 id="11">10, 11, 3</tri3>
                <tri3 id="12">3, 11, 4</tri3>
                <tri3 id="13">11, 12, 4</tri3>
                <tri3 id="14">12, 13, 4</tri3>
                <tri3 id="15">4, 13, 5</tri3>
                <tri3 id="16">13, 14, 5</tri3>
                <tri3 id="17">14, 15, 5</tri3>
                <tri3 id="18">5, 15, 6</tri3>
                <tri3 id="19">15, 16, 6</tri3>
                <tri3 id="20">6, 16, 7</tri3>
<!-- ... 876 like lines cut -->
        </Surface>
        <NodeSet name="bcSupportList">
                <node id="402"/>
                <node id="404"/>
                <node id="410"/>
                <node id="418"/>
                <node id="419"/>
                <node id="420"/>
                <node id="421"/>
                <node id="422"/>
                <node id="423"/>
                <node id="424"/>
                <node id="425"/>
                <node id="426"/>
                <node id="430"/>
                <node id="431"/>
                <node id="432"/>
                <node id="433"/>
                <node id="435"/>
                <node id="436"/>
                <node id="437"/>
                <node id="439"/>
<!-- ... 11 like lines cut -->
        </NodeSet>
        <NodeSet name="tipDispList">
                <node id="2"/>
                <node id="3"/>
                <node id="8"/>
                <node id="9"/>
                <node id="10"/>
                <node id="11"/>
                <node id="19"/>
                <node id="20"/>
                <node id="21"/>
                <node id="22"/>
                <node id="23"/>
                <node id="32"/>
                <node id="33"/>
                <node id="34"/>
                <node id="35"/>
                <node id="36"/>
                <node id="37"/>
                <node id="38"/>
                <node id="39"/>
                <node id="50"/>
<!-- ... 21 like lines cut -->
        </NodeSet>
    </Mesh>
    <MeshDomains>
        <SolidDomain mat="Material1" name="SoftPart"/>
        <SolidDomain mat="Material2" name="StiffPart"/>
    </MeshDomains>
    <MeshData>
        <ElementData elem_set="SoftPart" name="ThicknessData1" var="shell thickness">
                <elem lid="1">2.2000000e+00, 2.2000000e+00, 2.2000000e+00</elem>
                <elem lid="2">2.2000000e+00, 2.2000000e+00, 2.2000000e+00</elem>
                <elem lid="3">2.2000000e+00, 2.2000000e+00, 2.2000000e+00</elem>
                <elem lid="4">2.2000000e+00, 2.2000000e+00, 2.2000000e+00</elem>
                <elem lid="5">2.2000000e+00, 2.2000000e+00, 2.2000000e+00</elem>
                <elem lid="6">2.2000000e+00, 2.2000000e+00, 2.2000000e+00</elem>
                <elem lid="7">2.2000000e+00, 2.2000000e+00, 2.2000000e+00</elem>
                <elem lid="8">2.2000000e+00, 2.2000000e+00, 2.2000000e+00</elem>
                <elem lid="9">2.2000000e+00, 2.2000000e+00, 2.2000000e+00</elem>
                <elem lid="10">2.2000000e+00, 2.2000000e+00, 2.2000000e+00</elem>
                <elem lid="11">2.2000000e+00, 2.2000000e+00, 2.2000000e+00</elem>
                <elem lid="12">2.2000000e+00, 2.2000000e+00, 2.2000000e+00</elem>
                <elem lid="13">2.2000000e+00, 2.2000000e+00, 2.2000000e+00</elem>
                <elem lid="14">2.2000000e+00, 2.2000000e+00, 2.2000000e+00</elem>
                <elem lid="15">2.2000000e+00, 2.2000000e+00, 2.2000000e+00</elem>
                <elem lid="16">2.2000000e+00, 2.2000000e+00, 2.2000000e+00</elem>
                <elem lid="17">2.2000000e+00, 2.2000000e+00, 2.2000000e+00</elem>
                <elem lid="18">2.2000000e+00, 2.2000000e+00, 2.2000000e+00</elem>
                <elem lid="19">2.2000000e+00, 2.2000000e+00, 2.2000000e+00</elem>
                <elem lid="20">2.2000000e+00, 2.2000000e+00, 2.2000000e+00</elem>
<!-- ... 875 like lines cut -->
        </ElementData>
        <ElementData elem_set="StiffPart" name="ThicknessData2" var="shell thickness">
                <elem lid="1">2.2000000e+00, 2.2000000e+00, 2.2000000e+00</elem>
        </ElementData>
    </MeshData>
    <Boundary>
        <bc node_set="bcSupportList" type="fix">
            <dofs>x,y,z</dofs>
        </bc>
    </Boundary>
    <Loads>
        <surface_load surface="LoadedSurface" type="pressure">
            <pressure lc="1">-2.0000000e-01</pressure>
            <symmetric_stiffness>0</symmetric_stiffness>
            <linear>0</linear>
            <shell_bottom>0</shell_bottom>
        </surface_load>
    </Loads>
    <LoadData>
        <load_controller id="1" type="loadcurve">
            <interpolate>LINEAR</interpolate>
            <points>
                    <point>0, 0</point>
                    <point>1, 1</point>
            </points>
        </load_controller>
    </LoadData>
    <Output>
        <plotfile type="febio">
            <var type="displacement"/>
            <var type="stress"/>
            <var type="relative volume"/>
            <var type="reaction forces"/>
            <var type="contact pressure"/>
        </plotfile>
        <logfile file="tempModel.txt">
            <node_data data="ux;uy;uz" delim="," file="tempModel_disp_out.txt">1, 2, 3, 4, 5, 6, 7, 8, 9, 10, 11, 12, 13, 14, 15, 16, 17, 18, 19, 20, 21, 22, 23, 24, 25, 26, 27, 28, 29, 30, 31, 32, 33, 34, 35, 36, 37, 38, 39, 40, 41, 42, 43, 44, 45, 46, 47, 48, 49, 50, 51, 52, 53, 54, 55, 56, 57, 58, 59, 60, 61, 62, 63, 64, 65, 66, 67, 68, 69, 70, 71, 72, 73, 74, 75, 76, 77, 78, 79, 80, 81, 82, 83
        </logfile>
    </Output>
</febio_spec>
